Version 4
SHEET 1 1164 680
WIRE -144 -32 -160 -32
WIRE 0 -32 -64 -32
WIRE 144 -32 80 -32
WIRE 288 -32 224 -32
WIRE 432 -32 368 -32
WIRE 544 -32 512 -32
WIRE -160 64 -160 -32
WIRE 544 64 544 -32
WIRE 544 64 -160 64
FLAG -240 -112 0
FLAG -240 -192 DD
FLAG -96 0 0
FLAG -96 -64 DD
FLAG 48 0 0
FLAG 192 0 0
FLAG 336 0 0
FLAG 480 0 0
FLAG 48 -64 DD
FLAG 192 -64 DD
FLAG 336 -64 DD
FLAG 480 -64 DD
SYMBOL voltage -240 -208 R0
SYMATTR InstName VDD
SYMATTR Value 1
SYMBOL 2_inv_comp -96 -32 R0
SYMATTR InstName X13
SYMBOL 2_inv_comp 48 -32 R0
SYMATTR InstName X1
SYMBOL 2_inv_comp 192 -32 R0
SYMATTR InstName X2
SYMBOL 2_inv_comp 336 -32 R0
SYMATTR InstName X3
SYMBOL 2_inv_comp 480 -32 R0
SYMATTR InstName X4
TEXT -184 152 Left 2 !.tran 0 1n 0 1p
