Version 4
SHEET 1 1876 680
WIRE 144 64 48 64
WIRE 304 64 224 64
WIRE 48 112 48 64
WIRE 304 112 304 64
WIRE 48 208 48 192
WIRE 304 208 304 176
WIRE 304 208 48 208
WIRE 304 240 304 208
FLAG 304 240 0
SYMBOL diode 288 112 R0
SYMATTR InstName D1
SYMATTR Value 1N4148
SYMBOL res 240 48 R90
WINDOW 0 0 56 VBottom 2
WINDOW 3 32 56 VTop 2
SYMATTR InstName R1
SYMATTR Value 1k
SYMBOL voltage 48 96 R0
WINDOW 123 0 0 Left 2
WINDOW 39 0 0 Left 2
SYMATTR InstName V1
SYMATTR Value PWL(0 50 100n 50 100.001n 0 200n 0 200.001n 50 300n 50 300.001n -50 400n -50 400.001n 0 500n 0 500.001n -50 600n -50 600.001n 50 700n 50)
TEXT 16 216 Left 2 !.tran 0 700n 0 1n
