Version 4
SHEET 1 1164 680
WIRE 672 -224 624 -224
WIRE -144 -32 -160 -32
WIRE 0 -32 -64 -32
WIRE 144 -32 80 -32
WIRE 288 -32 224 -32
WIRE 432 -32 368 -32
WIRE 576 -32 512 -32
WIRE 720 -32 656 -32
WIRE 848 -32 800 -32
WIRE 848 48 848 32
FLAG -240 -112 0
FLAG -240 -192 DD
FLAG -96 0 0
FLAG -96 -64 DD
FLAG 48 0 0
FLAG 192 0 0
FLAG 336 0 0
FLAG 480 0 0
FLAG 624 0 0
FLAG 768 0 0
FLAG 48 -64 DD
FLAG 192 -64 DD
FLAG 336 -64 DD
FLAG 480 -64 DD
FLAG 624 -64 DD
FLAG 768 -64 DD
FLAG -240 -288 0
FLAG -160 -32 IN
FLAG -240 -368 IN
FLAG 848 48 0
FLAG 544 -224 IN
FLAG 592 -192 0
FLAG 592 -256 DD
FLAG 672 -160 0
SYMBOL voltage -240 -208 R0
SYMATTR InstName VDD
SYMATTR Value 1
SYMBOL voltage -240 -384 R0
WINDOW 123 0 0 Left 2
WINDOW 39 0 0 Left 2
SYMATTR InstName VIN
SYMATTR Value PULSE(0 1 0 0.01f 0.01f 20ns 40ns 5)
SYMBOL 3_simb_inv -96 -32 R0
WINDOW 39 0 0 Left 2
SYMATTR InstName X1
SYMATTR SpiceLine s=1
SYMBOL 3_simb_inv 48 -32 R0
WINDOW 39 0 0 Left 2
SYMATTR InstName X2
SYMATTR SpiceLine s=2
SYMBOL 3_simb_inv 192 -32 R0
WINDOW 39 0 0 Left 2
SYMATTR InstName X3
SYMATTR SpiceLine s=3
SYMBOL 3_simb_inv 336 -32 R0
WINDOW 39 0 0 Left 2
SYMATTR InstName X4
SYMATTR SpiceLine s=4
SYMBOL 3_simb_inv 480 -32 R0
WINDOW 39 0 0 Left 2
SYMATTR InstName X5
SYMATTR SpiceLine s=5
SYMBOL 3_simb_inv 624 -32 R0
WINDOW 39 0 0 Left 2
SYMATTR InstName X6
SYMATTR SpiceLine s=6
SYMBOL 3_simb_inv 768 -32 R0
WINDOW 39 0 0 Left 2
SYMATTR InstName X7
SYMATTR SpiceLine s=7
SYMBOL cap 832 -32 R0
SYMATTR InstName C1
SYMATTR Value 10p
SYMBOL 3_simb_inv 592 -224 R0
WINDOW 39 0 0 Left 2
SYMATTR InstName X8
SYMATTR SpiceLine s=1
SYMBOL cap 656 -224 R0
SYMATTR InstName C2
SYMATTR Value 10p
TEXT -184 152 Left 2 !.tran 0 50n 0 100p
TEXT 640 -272 Left 2 ;CON EL INVERSOR ORIGINAL
TEXT 232 64 Left 2 ;CADENA DE INVERSORES
