Version 4
SHEET 1 1400 680
WIRE 336 32 -64 32
WIRE 368 32 336 32
WIRE 464 32 432 32
WIRE 656 32 464 32
WIRE 896 32 656 32
WIRE 1072 32 976 32
WIRE 1216 32 1136 32
WIRE 1344 32 1216 32
WIRE 336 80 336 32
WIRE 464 80 464 32
WIRE 896 112 896 32
WIRE 976 112 976 32
WIRE 1344 112 1344 32
WIRE -64 128 -64 32
WIRE 656 128 656 32
WIRE 1216 128 1216 32
WIRE 336 192 336 144
WIRE 368 192 336 192
WIRE 464 192 464 144
WIRE 464 192 432 192
WIRE 336 288 336 192
WIRE 608 288 336 288
WIRE 656 288 656 192
WIRE 656 288 608 288
WIRE 704 288 656 288
WIRE 896 288 896 192
WIRE 896 288 784 288
WIRE 976 288 976 192
WIRE 1104 288 976 288
WIRE 1216 288 1216 192
WIRE 1216 288 1104 288
WIRE 1344 288 1344 192
WIRE 1344 288 1216 288
WIRE 608 304 608 288
WIRE 1104 304 1104 288
WIRE -64 320 -64 208
WIRE 464 320 464 192
WIRE 464 320 -64 320
WIRE 768 400 768 336
WIRE 768 528 768 480
WIRE 784 528 768 528
WIRE 720 544 720 336
WIRE 768 544 768 528
WIRE 768 544 720 544
FLAG 608 304 0
FLAG 784 528 0
FLAG 1104 304 0
SYMBOL voltage -64 112 R0
WINDOW 123 0 0 Left 2
WINDOW 39 24 124 Left 2
SYMATTR InstName V1
SYMATTR Value SINE(0 310 50)
SYMATTR SpiceLine Rser=0.001
SYMBOL diode 368 48 R270
WINDOW 0 32 32 VTop 2
WINDOW 3 0 32 VBottom 2
SYMATTR InstName D1
SYMBOL diode 480 144 R180
WINDOW 0 24 64 Left 2
WINDOW 3 24 0 Left 2
SYMATTR InstName D2
SYMBOL diode 368 208 R270
WINDOW 0 32 32 VTop 2
WINDOW 3 0 32 VBottom 2
SYMATTR InstName D3
SYMBOL diode 352 144 R180
WINDOW 0 24 64 Left 2
WINDOW 3 24 0 Left 2
SYMATTR InstName D4
SYMBOL cap 640 128 R0
SYMATTR InstName C1
SYMATTR Value 1m
SYMBOL ind2 912 208 R180
WINDOW 0 36 80 Left 2
WINDOW 3 36 40 Left 2
SYMATTR InstName L1
SYMATTR Value 10.7m
SYMATTR Type ind
SYMBOL sw 688 288 R270
SYMATTR InstName S1
SYMATTR Value SW1
SYMBOL voltage 768 384 R0
WINDOW 123 0 0 Left 2
WINDOW 39 0 0 Left 2
SYMATTR InstName V2
SYMATTR Value PULSE(0 5 0 1n 1n 8u 20u)
SYMBOL ind2 960 96 R0
SYMATTR InstName L2
SYMATTR Value 36µ
SYMATTR Type ind
SYMBOL diode 1072 48 R270
WINDOW 0 32 32 VTop 2
WINDOW 3 0 32 VBottom 2
SYMATTR InstName D5
SYMBOL cap 1200 128 R0
SYMATTR InstName C2
SYMATTR Value 20µ
SYMBOL res 1328 96 R0
SYMATTR InstName R1
SYMATTR Value 10
TEXT -64 -48 Left 2 !K L1 L2 1
TEXT -64 -88 Left 2 !.tran 0 5m 0 0.001
TEXT -64 -128 Left 2 !.model SW1 sw(Ron=0.001 Roff=1G Vt=3 Vh=0)
