Version 4
SHEET 1 3300 896
WIRE 1216 -192 800 -192
WIRE 1440 -192 1440 -224
WIRE 1440 -192 1216 -192
WIRE 1584 -192 1440 -192
WIRE 1744 -192 1584 -192
WIRE 1904 -192 1744 -192
WIRE 2160 -192 1904 -192
WIRE 1584 -160 1584 -192
WIRE 1648 -160 1584 -160
WIRE 1744 -160 1744 -192
WIRE 1808 -160 1744 -160
WIRE 1904 -160 1904 -192
WIRE 1968 -160 1904 -160
WIRE 1648 -112 1648 -160
WIRE 1648 -112 1584 -112
WIRE 1808 -112 1808 -160
WIRE 1808 -112 1744 -112
WIRE 1968 -112 1968 -160
WIRE 1968 -112 1904 -112
WIRE 800 -80 800 -192
WIRE 800 -80 672 -80
WIRE 912 -80 800 -80
WIRE 3152 -80 3136 -80
WIRE 3264 -80 3232 -80
WIRE 1744 -64 1584 -64
WIRE 1904 -64 1744 -64
WIRE 672 -48 672 -80
WIRE 720 -48 672 -48
WIRE 912 -48 912 -80
WIRE 960 -48 912 -48
WIRE 1216 -32 1216 -192
WIRE 1744 -16 1744 -64
WIRE 1744 -16 1536 -16
WIRE 1904 -16 1744 -16
WIRE 720 0 720 -48
WIRE 720 0 672 0
WIRE 960 0 960 -48
WIRE 960 0 912 0
WIRE 1168 0 1136 0
WIRE 1296 0 1248 0
WIRE 1904 16 1904 -16
WIRE 1968 16 1904 16
WIRE 3136 32 3136 -80
WIRE 3152 32 3136 32
WIRE 3264 32 3264 -80
WIRE 3264 32 3232 32
WIRE 1216 48 1216 32
WIRE 1536 64 1536 -16
WIRE 1536 64 1504 64
WIRE 1568 64 1536 64
WIRE 1968 64 1968 16
WIRE 1968 64 1904 64
WIRE 672 80 672 48
WIRE 912 80 912 48
WIRE 912 80 672 80
WIRE 672 96 672 80
WIRE 720 96 672 96
WIRE 912 96 912 80
WIRE 960 96 912 96
WIRE 3136 96 3136 32
WIRE 3136 96 3120 96
WIRE 3264 96 3264 32
WIRE 3280 96 3264 96
WIRE 1568 112 1568 64
WIRE 1568 112 1504 112
WIRE 720 144 720 96
WIRE 720 144 672 144
WIRE 960 144 960 96
WIRE 960 144 912 144
WIRE 1136 144 1136 0
WIRE 1248 144 1136 144
WIRE 1456 144 1248 144
WIRE 1904 144 1904 112
WIRE 1968 144 1904 144
WIRE 3136 144 3136 96
WIRE 3152 144 3136 144
WIRE 3264 144 3264 96
WIRE 3264 144 3232 144
WIRE 1968 192 1968 144
WIRE 1968 192 1904 192
WIRE 672 224 672 192
WIRE 720 224 672 224
WIRE 3136 256 3136 144
WIRE 3152 256 3136 256
WIRE 3264 256 3264 144
WIRE 3264 256 3232 256
WIRE 720 272 720 224
WIRE 720 272 672 272
WIRE 1904 272 1904 240
WIRE 1968 272 1904 272
WIRE 1968 320 1968 272
WIRE 1968 320 1904 320
WIRE 672 352 672 320
WIRE 912 352 912 192
WIRE 912 352 672 352
WIRE 1136 352 1136 144
WIRE 1136 352 912 352
WIRE 672 384 672 352
WIRE 912 384 912 352
WIRE 2160 400 2160 -192
WIRE 3152 400 3136 400
WIRE 3264 400 3232 400
WIRE 752 432 672 432
WIRE 992 432 912 432
WIRE 1504 432 1504 160
WIRE 1904 432 1904 368
WIRE 1904 432 1504 432
WIRE 2112 432 1904 432
WIRE 2320 432 2192 432
WIRE 752 480 752 432
WIRE 752 480 672 480
WIRE 1504 480 1504 432
WIRE 1904 480 1904 432
WIRE 2160 480 2160 464
WIRE 912 496 912 480
WIRE 992 496 992 432
WIRE 992 496 912 496
WIRE 672 512 672 480
WIRE 672 512 576 512
WIRE 736 512 672 512
WIRE 912 512 912 496
WIRE 3136 512 3136 400
WIRE 3152 512 3136 512
WIRE 3264 512 3264 400
WIRE 3264 512 3232 512
WIRE 1584 528 1504 528
WIRE 1984 528 1904 528
WIRE 576 544 576 512
WIRE 736 544 736 512
WIRE 992 560 912 560
WIRE 1248 560 1248 144
WIRE 1456 560 1248 560
WIRE 1584 576 1584 528
WIRE 1584 576 1504 576
WIRE 1984 576 1984 528
WIRE 1984 576 1904 576
WIRE 3136 576 3136 512
WIRE 3136 576 3120 576
WIRE 3264 576 3264 512
WIRE 3280 576 3264 576
WIRE 656 592 576 592
WIRE 816 592 736 592
WIRE 992 608 992 560
WIRE 992 608 912 608
WIRE 1904 608 1904 576
WIRE 3136 624 3136 576
WIRE 3152 624 3136 624
WIRE 3264 624 3264 576
WIRE 3264 624 3232 624
WIRE 656 640 656 592
WIRE 656 640 576 640
WIRE 816 640 816 592
WIRE 816 640 736 640
WIRE 1984 656 1904 656
WIRE 576 672 576 640
WIRE 736 672 736 640
WIRE 736 672 576 672
WIRE 800 672 736 672
WIRE 912 672 912 608
WIRE 912 672 800 672
WIRE 800 688 800 672
WIRE 1504 688 1504 576
WIRE 1504 688 1360 688
WIRE 1536 688 1504 688
WIRE 1712 688 1536 688
WIRE 1984 704 1984 656
WIRE 1984 704 1904 704
WIRE 1360 720 1360 688
WIRE 1536 720 1536 688
WIRE 1712 720 1712 688
WIRE 1904 736 1904 704
WIRE 3136 736 3136 624
WIRE 3152 736 3136 736
WIRE 3264 736 3264 624
WIRE 3264 736 3232 736
WIRE 1440 768 1360 768
WIRE 1616 768 1536 768
WIRE 1792 768 1712 768
WIRE 1984 784 1904 784
WIRE 1440 816 1440 768
WIRE 1440 816 1360 816
WIRE 1536 816 1440 816
WIRE 1616 816 1616 768
WIRE 1616 816 1536 816
WIRE 1712 816 1616 816
WIRE 1792 816 1792 768
WIRE 1792 816 1712 816
WIRE 1984 832 1984 784
WIRE 1984 832 1904 832
WIRE 1536 848 1536 816
WIRE 1728 848 1536 848
WIRE 1904 848 1904 832
WIRE 1904 848 1728 848
WIRE 1728 864 1728 848
FLAG -80 512 0
FLAG -80 384 0
FLAG -80 256 0
FLAG -80 128 0
FLAG -80 48 DD
FLAG -80 176 A
FLAG -80 304 B
FLAG -80 432 C
FLAG 624 32 A
FLAG 624 176 A
FLAG 624 304 B
FLAG 864 176 C
FLAG 864 32 B
FLAG 800 688 0
FLAG 528 624 A
FLAG 864 464 A
FLAG 864 592 B
FLAG 688 624 B
FLAG 624 464 C
FLAG 1296 0 CARRY
FLAG 1536 -80 A
FLAG 1696 -80 B
FLAG 1856 -80 C
FLAG 1856 96 A
FLAG 1856 224 B
FLAG 1856 352 C
FLAG 1440 -224 DD
FLAG 2320 432 SUM
FLAG 1312 800 A
FLAG 1488 800 B
FLAG 1664 800 C
FLAG 1856 560 A
FLAG 1856 688 B
FLAG 1856 816 C
FLAG 3200 288 0
FLAG 3200 176 0
FLAG 3200 64 0
FLAG 3200 -48 0
FLAG 3200 -112 DD
FLAG 3200 0 DD
FLAG 3200 112 DD
FLAG 3200 224 DD
FLAG 3280 96 0
FLAG 3120 96 SUM
FLAG 3200 768 0
FLAG 3200 656 0
FLAG 3200 544 0
FLAG 3200 432 0
FLAG 3200 368 DD
FLAG 3200 480 DD
FLAG 3200 592 DD
FLAG 3200 704 DD
FLAG 3280 576 0
FLAG 3120 576 CARRY
FLAG 1216 48 0
FLAG 2160 480 0
FLAG 1728 864 0
SYMBOL voltage -80 32 R0
SYMATTR InstName VDD
SYMATTR Value 1
SYMBOL voltage -80 160 R0
WINDOW 123 0 0 Left 2
WINDOW 39 0 0 Left 2
SYMATTR InstName VA
SYMATTR Value PULSE(1 0 0 0.1p 0.1p 4n 8n 10)
SYMBOL voltage -80 288 R0
WINDOW 123 0 0 Left 2
WINDOW 39 0 0 Left 2
SYMATTR InstName VB
SYMATTR Value PULSE(1 0 0 0.1p 0.1p 2n 4n 10)
SYMBOL voltage -80 416 R0
WINDOW 123 0 0 Left 2
WINDOW 39 0 0 Left 2
SYMATTR InstName VC
SYMATTR Value PULSE(1 0 0 0.1p 0.1p 1n 2n 10)
SYMBOL pmos4 624 -48 R0
SYMATTR InstName M1
SYMATTR Value2 l=50n w=500n
SYMBOL pmos4 624 96 R0
SYMATTR InstName M2
SYMATTR Value2 l=50n w=500n
SYMBOL pmos4 624 224 R0
SYMATTR InstName M3
SYMATTR Value2 l=50n w=500n
SYMBOL pmos4 864 96 R0
SYMATTR InstName M4
SYMATTR Value2 l=50n w=500n
SYMBOL pmos4 864 -48 R0
SYMATTR InstName M5
SYMATTR Value2 l=50n w=500n
SYMBOL nmos4 624 384 R0
SYMATTR InstName M6
SYMATTR Value2 l=50n w=1000n
SYMBOL nmos4 864 384 R0
SYMATTR InstName M7
SYMATTR Value2 l=50n w=1000n
SYMBOL nmos4 864 512 R0
SYMATTR InstName M8
SYMATTR Value2 l=50n w=1000n
SYMBOL nmos4 528 544 R0
SYMATTR InstName M9
SYMATTR Value2 l=50n w=1000n
SYMBOL nmos4 688 544 R0
SYMATTR InstName M10
SYMATTR Value2 l=50n w=1000n
SYMBOL pmos4 1456 64 R0
SYMATTR InstName M13
SYMATTR Value2 l=50n w=500n
SYMBOL nmos4 1456 480 R0
SYMATTR InstName M14
SYMATTR Value2 l=50n w=1000n
SYMBOL pmos4 1536 -160 R0
SYMATTR InstName M15
SYMATTR Value2 l=50n w=500n
SYMBOL pmos4 1696 -160 R0
SYMATTR InstName M16
SYMBOL pmos4 1856 -160 R0
SYMATTR InstName M17
SYMATTR Value2 l=50n w=500n
SYMBOL pmos4 1856 16 R0
SYMATTR InstName M18
SYMATTR Value2 l=50n w=500n
SYMBOL pmos4 1856 144 R0
SYMATTR InstName M19
SYMATTR Value2 l=50n w=500n
SYMBOL pmos4 1856 272 R0
SYMATTR InstName M20
SYMATTR Value2 l=50n w=500n
SYMBOL nmos4 1312 720 R0
SYMATTR InstName M23
SYMATTR Value2 l=50n w=1000n
SYMBOL nmos4 1488 720 R0
SYMATTR InstName M24
SYMATTR Value2 l=50n w=1000n
SYMBOL nmos4 1664 720 R0
SYMATTR InstName M25
SYMATTR Value2 l=50n w=1000n
SYMBOL nmos4 1856 480 R0
SYMATTR InstName M26
SYMATTR Value2 l=50n w=1500n
SYMBOL nmos4 1856 608 R0
SYMATTR InstName M27
SYMATTR Value2 l=50n w=1500n
SYMBOL nmos4 1856 736 R0
SYMATTR InstName M28
SYMATTR Value2 l=50n w=1500n
SYMBOL simb_inv 3200 -80 R0
SYMATTR InstName X1
SYMBOL simb_inv 3200 32 R0
SYMATTR InstName X2
SYMBOL simb_inv 3200 144 R0
SYMATTR InstName X3
SYMBOL simb_inv 3200 256 R0
SYMATTR InstName X4
SYMBOL simb_inv 3200 400 R0
SYMATTR InstName X5
SYMBOL simb_inv 3200 512 R0
SYMATTR InstName X6
SYMBOL simb_inv 3200 624 R0
SYMATTR InstName X7
SYMBOL simb_inv 3200 736 R0
SYMATTR InstName X8
SYMBOL simb_inv 1216 0 R0
SYMATTR InstName X9
SYMBOL simb_inv 2160 432 R0
SYMATTR InstName X10
TEXT -288 -40 Left 2 !.include modelos.txt
TEXT -290 878 Left 2 !.tran 0 8n 0 1p
